# _____                              _______________________________
# ____/ TELEMAC Project Definitions /______________________________/
#
[Configurations]
configs:    gfortranp
#
[general]
modules:    system -mascaret
options:       api
f2py_name:     f2py3
pyd_fcompiler: gfortran
#
mods_all:   -I <config>
#
sfx_zip:    .gztar
sfx_lib:    .so
sfx_obj:    .o
sfx_mod:    .mod
sfx_exe:
#
val_root:   <root>/examples
val_rank:   all
#
# _____                   ___________________________________
# ____/ gfortran openMPI /__________________________________/
[gfortranp]
#
mpi_cmdexec:   mpiexec --allow-run-as-root -wdir <wdir> -n <ncsize> <exename>
mpi_hosts:
#
cmd_obj_c:  gcc -fPIC -c <srcName> -o <objName>
cmd_obj:    mpif90 -fPIC -c -cpp -O2 -DHAVE_MPI -fconvert=big-endian -frecord-marker=4 <mods> <incs> <f95name>
cmd_lib:    mpif90 -fPIC -shared -fconvert=big-endian -frecord-marker=4 -lpthread -lm -o <libname> <objs>
cmd_exe:    mpif90 -fPIC -fconvert=big-endian -frecord-marker=4 -lpthread -v -lm -o <exename> <objs> <libs>
#
mods_all:   -I <config>
#
libs_all:    /usr/lib/libmpi.so -L$METISHOME/lib -lmetis
#